MolPort-008-344-232_1_1_1_1
XX    ILIB11172101263D

 50 53  0  0  1  0              1 V2000
    4.7433    8.5109   10.9664 O   0  0  0  0  0
    6.0012    8.8115   10.5117 C   0  0  0  0  0
    6.3768   10.1518   10.4426 C   0  0  0  0  0
    5.5515   11.1400   10.8977 O   0  0  0  0  0
    4.7805   10.6818   11.2832 H   0  0  0  0  0
    7.5965   10.4989    9.9039 C   0  0  0  0  0
    8.4554    9.4859    9.4767 C   0  0  0  0  0
    8.1432    8.1056    9.6202 C   0  0  0  0  0
    6.8887    7.7859   10.1512 C   0  0  0  0  0
    6.5729    6.7566   10.2824 H   0  0  0  0  0
    9.1902    7.1098    9.1223 C   0  0  2  0  0
    8.9488    5.6569    9.0424 N   0  0  0  0  0
    7.7359    5.0821    8.9043 N   0  0  0  0  0
    8.0375    3.8205    8.5693 C   0  0  0  0  0
    9.4164    3.5846    8.3882 C   0  0  0  0  0
    9.9884    4.7936    8.7206 C   0  0  0  0  0
   11.2912    5.1439    8.7393 N   0  0  0  0  0
   11.5983    6.3064    9.2001 C   0  0  0  0  0
   10.6054    7.3514    9.6549 C   0  0  2  0  0
   10.7627    7.4243   11.1540 C   0  0  0  0  0
    9.8474    7.2766   11.9535 O   0  0  0  0  0
   12.1910    7.7005   11.5837 C   0  0  0  0  0
   13.1675    6.6191   11.0573 C   0  0  0  0  0
   13.0477    6.5729    9.5168 C   0  0  0  0  0
   13.6771    5.7855    9.0905 H   0  0  0  0  0
   13.3368    7.5298    9.0721 H   0  0  0  0  0
   12.8624    5.2287   11.6571 C   0  0  0  0  0
   13.0978    5.1873   12.7234 H   0  0  0  0  0
   13.4650    4.4572   11.1648 H   0  0  0  0  0
   11.8115    4.9425   11.5500 H   0  0  0  0  0
   14.6136    6.9787   11.4243 C   0  0  0  0  0
   14.7722    6.9675   12.5060 H   0  0  0  0  0
   14.8805    7.9746   11.0573 H   0  0  0  0  0
   15.3153    6.2548   10.9963 H   0  0  0  0  0
   12.4569    8.6845   11.1774 H   0  0  0  0  0
   12.2032    7.7979   12.6596 H   0  0  0  0  0
   10.9686    8.3140    9.2785 H   0  0  0  0  0
   10.1482    2.3952    7.9805 C   0  0  0  0  0
   11.3380    2.1930    8.2265 O   0  0  0  0  0
    9.4375    1.4838    7.2579 N   0  0  0  0  0
    9.9050    0.6304    6.9415 H   0  0  0  0  0
    8.4671    1.6633    6.8948 H   0  0  0  0  0
    7.2304    3.1108    8.4613 H   0  0  0  0  0
    9.2154    7.3673    8.0610 H   0  0  0  0  0
    9.3900    9.8031    9.0187 H   0  0  0  0  0
    7.8775   11.5415    9.7963 H   0  0  0  0  0
    3.8238    8.5051    9.8653 C   0  0  0  0  0
    2.8366    8.2410   10.2557 H   0  0  0  0  0
    4.1090    7.7559    9.1199 H   0  0  0  0  0
    3.7521    9.4948    9.4014 H   0  0  0  0  0
  1  2  1  0  0  0
  1 47  1  0  0  0
  2  3  2  0  0  0
  2  9  1  0  0  0
  3  4  1  0  0  0
  3  6  1  0  0  0
  4  5  1  0  0  0
  6  7  2  0  0  0
  6 46  1  0  0  0
  7  8  1  0  0  0
  7 45  1  0  0  0
  8  9  2  0  0  0
  8 11  1  0  0  0
  9 10  1  0  0  0
 11 12  1  0  0  0
 11 19  1  0  0  0
 11 44  1  0  0  0
 12 13  1  0  0  0
 12 16  1  0  0  0
 13 14  2  0  0  0
 14 15  1  0  0  0
 14 43  1  0  0  0
 15 16  2  0  0  0
 15 38  1  0  0  0
 16 17  1  0  0  0
 17 18  2  0  0  0
 18 19  1  0  0  0
 18 24  1  0  0  0
 19 20  1  0  0  0
 19 37  1  0  0  0
 20 21  2  0  0  0
 20 22  1  0  0  0
 22 23  1  0  0  0
 22 35  1  0  0  0
 22 36  1  0  0  0
 23 24  1  0  0  0
 23 27  1  0  0  0
 23 31  1  0  0  0
 24 25  1  0  0  0
 24 26  1  0  0  0
 27 28  1  0  0  0
 27 29  1  0  0  0
 27 30  1  0  0  0
 31 32  1  0  0  0
 31 33  1  0  0  0
 31 34  1  0  0  0
 38 39  2  0  0  0
 38 40  1  0  0  0
 40 41  1  0  0  0
 40 42  1  0  0  0
 47 48  1  0  0  0
 47 49  1  0  0  0
 47 50  1  0  0  0
M  END
> <Chemgauss4>
-3.381463

> <Unaligned Pharm. Score (w/o EVS)>
56.45

> <Binding Affinity Score>
-21.91

> <AlignmentState>
ALIGN_BY_TOLERANCE_COVER

$$$$
MolPort-009-753-846_1_1_1_1
XX    ILIB11172101263D

 39 42  0  0  1  0              1 V2000
    6.0232   11.1897   10.9861 F   0  0  0  0  0
    6.7625   10.0926   10.7744 C   0  0  0  0  0
    7.7623   10.1155    9.8109 C   0  0  0  0  0
    8.5467    8.9778    9.6083 C   0  0  0  0  0
    8.3336    7.8099   10.3646 C   0  0  0  0  0
    9.1866    6.6241   10.1623 C   0  0  0  0  0
    8.7632    5.4797    9.4485 C   0  0  0  0  0
    9.6285    4.3898    9.2082 C   0  0  0  0  0
    9.2437    3.3159    8.4016 N   0  0  0  0  0
    9.8420    2.5127    8.2571 H   0  0  0  0  0
    8.2544    3.0990    8.0903 H   0  0  0  0  0
   10.9439    4.4660    9.7349 C   0  0  0  0  0
   11.3838    5.5808   10.4859 C   0  0  0  0  0
   12.7393    5.6972   11.0632 C   0  0  0  0  0
   13.2078    4.7870   12.0282 C   0  0  0  0  0
   14.4532    5.0008   12.5872 C   0  0  0  0  0
   15.0208    4.2531   13.5716 O   0  0  0  0  0
   16.2349    4.9931   13.8123 C   0  0  0  0  0
   16.4034    6.1181   12.9246 O   0  0  0  0  0
   15.2386    6.0675   12.2268 C   0  0  0  0  0
   14.8246    6.9776   11.2839 C   0  0  0  0  0
   13.5717    6.7831   10.6954 C   0  0  0  0  0
   13.2313    7.5029    9.9526 H   0  0  0  0  0
   15.4346    7.8345   11.0250 H   0  0  0  0  0
   16.2265    5.3576   14.8457 H   0  0  0  0  0
   17.0891    4.3184   13.6861 H   0  0  0  0  0
   12.6036    3.9516   12.3669 H   0  0  0  0  0
   10.4882    6.6443   10.6791 C   0  0  0  0  0
   10.8115    7.5136   11.2540 H   0  0  0  0  0
   11.8567    3.3828    9.5085 C   0  0  0  0  0
   12.5950    2.5039    9.3374 N   0  0  0  0  0
    7.4168    5.4335    8.9700 C   0  0  0  0  0
    6.3156    5.4187    8.6020 N   0  0  0  0  0
    7.3079    7.8112   11.3238 C   0  0  0  0  0
    6.5250    8.9503   11.5296 C   0  0  0  0  0
    5.7357    8.9521   12.2750 H   0  0  0  0  0
    7.1168    6.9247   11.9245 H   0  0  0  0  0
    9.3260    9.0096    8.8499 H   0  0  0  0  0
    7.9249   11.0133    9.2210 H   0  0  0  0  0
  1  2  1  0  0  0
  2  3  2  0  0  0
  2 35  1  0  0  0
  3  4  1  0  0  0
  3 39  1  0  0  0
  4  5  2  0  0  0
  4 38  1  0  0  0
  5  6  1  0  0  0
  5 34  1  0  0  0
  6  7  2  0  0  0
  6 28  1  0  0  0
  7  8  1  0  0  0
  7 32  1  0  0  0
  8  9  1  0  0  0
  8 12  2  0  0  0
  9 10  1  0  0  0
  9 11  1  0  0  0
 12 13  1  0  0  0
 12 30  1  0  0  0
 13 14  1  0  0  0
 13 28  2  0  0  0
 14 15  2  0  0  0
 14 22  1  0  0  0
 15 16  1  0  0  0
 15 27  1  0  0  0
 16 17  1  0  0  0
 16 20  2  0  0  0
 17 18  1  0  0  0
 18 19  1  0  0  0
 18 25  1  0  0  0
 18 26  1  0  0  0
 19 20  1  0  0  0
 20 21  1  0  0  0
 21 22  2  0  0  0
 21 24  1  0  0  0
 22 23  1  0  0  0
 28 29  1  0  0  0
 30 31  3  0  0  0
 32 33  3  0  0  0
 34 35  2  0  0  0
 34 37  1  0  0  0
 35 36  1  0  0  0
M  END
> <Chemgauss4>
-7.629516

> <Unaligned Pharm. Score (w/o EVS)>
54.84

> <Binding Affinity Score>
-22.93

> <AlignmentState>
ALIGN_BY_TOLERANCE_COVER

$$$$
MolPort-002-605-763_1_2_1_1
XX    ILIB11172101263D

 32 34  0  0  1  0              1 V2000
    8.7012    4.9582   12.0101 Cl  0  0  0  0  0
    8.0745    6.3469   11.2101 C   0  0  0  0  0
    8.5551    6.7606    9.9640 C   0  0  0  0  0
    8.0188    7.9486    9.4205 C   0  0  0  0  0
    7.0156    8.6685   10.0698 C   0  0  0  0  0
    6.5510    8.2370   11.3015 C   0  0  0  0  0
    7.0904    7.0863   11.8698 C   0  0  0  0  0
    6.7481    6.7775   12.8498 H   0  0  0  0  0
    5.7828    8.8000   11.8259 H   0  0  0  0  0
    6.6173    9.5752    9.6191 H   0  0  0  0  0
    8.3953    8.3555    8.4840 H   0  0  0  0  0
    9.7090    6.0779    9.2257 C   0  0  1  0  0
   11.0314    6.3390    9.9244 C   0  0  0  0  0
   11.8654    5.3251   10.1868 C   0  0  0  0  0
   13.4097    5.5072   10.9585 S   0  0  0  0  0
   13.7429    3.7391   11.0178 C   0  0  0  0  0
   12.6094    3.1037   10.2774 C   0  0  0  0  0
   12.4989    1.9188   10.0097 O   0  0  0  0  0
   11.5789    4.0167    9.8634 N   0  0  0  0  0
   10.4656    3.6264    9.2380 C   0  0  0  0  0
   10.2163    2.3548    8.9560 N   0  3  0  0  0
    9.3027    2.0194    8.4881 H   0  0  0  0  0
   10.8810    1.6256    9.2017 H   0  0  0  0  0
    9.4336    4.6070    8.7927 C   0  0  2  0  0
    9.4240    4.4914    7.3173 C   0  0  0  0  0
    9.4390    4.3834    6.1621 N   0  0  0  0  0
    8.4504    4.2817    9.1559 H   0  0  0  0  0
   14.6905    3.5108   10.5269 H   0  0  0  0  0
   13.7414    3.4012   12.0550 H   0  0  0  0  0
   11.3818    7.6819   10.2895 C   0  0  0  0  0
   11.6854    8.7586   10.6022 N   0  0  0  0  0
    9.7796    6.6260    8.2878 H   0  0  0  0  0
  1  2  1  0  0  0
  2  3  2  0  0  0
  2  7  1  0  0  0
  3  4  1  0  0  0
  3 12  1  0  0  0
  4  5  2  0  0  0
  4 11  1  0  0  0
  5  6  1  0  0  0
  5 10  1  0  0  0
  6  7  2  0  0  0
  6  9  1  0  0  0
  7  8  1  0  0  0
 12 13  1  0  0  0
 12 24  1  0  0  0
 12 32  1  0  0  0
 13 14  2  0  0  0
 13 30  1  0  0  0
 14 15  1  0  0  0
 14 19  1  0  0  0
 15 16  1  0  0  0
 16 17  1  0  0  0
 16 28  1  0  0  0
 16 29  1  0  0  0
 17 18  2  0  0  0
 17 19  1  0  0  0
 19 20  1  0  0  0
 20 21  2  0  0  0
 20 24  1  0  0  0
 21 22  1  0  0  0
 21 23  1  0  0  0
 24 25  1  0  0  0
 24 27  1  0  0  0
 25 26  3  0  0  0
 30 31  3  0  0  0
M  END
> <Chemgauss4>
-8.485324

> <Unaligned Pharm. Score (w/o EVS)>
45.62

> <Binding Affinity Score>
-27.21

> <AlignmentState>
ALIGN_BY_TOLERANCE_COVER

$$$$
MolPort-005-111-359_1_1_1_1
XX    ILIB11172101263D

 30 31  0  0  1  0              1 V2000
   11.7954    2.4235    8.7379 O   0  0  0  0  0
   10.6326    2.6948    8.4435 C   0  0  0  0  0
    9.8744    1.8434    7.6807 N   0  0  0  0  0
    8.8857    1.9938    7.3514 H   0  0  0  0  0
   10.2787    0.9690    7.3420 H   0  0  0  0  0
   10.0302    3.9816    8.8832 C   0  0  0  0  0
    8.6709    4.2293    8.8798 C   0  0  0  0  0
    8.0943    5.4234    9.1976 N   0  0  0  0  0
    8.9045    6.4512    9.5715 C   0  0  0  0  0
    8.2354    7.7675    9.7684 C   0  0  0  0  0
    8.8181    8.8388   10.4733 C   0  0  0  0  0
    8.1762   10.0873   10.5899 C   0  0  0  0  0
    6.9185   10.3006   10.0173 C   0  0  0  0  0
    6.3155    9.2496    9.3235 C   0  0  0  0  0
    6.9665    8.0117    9.2049 C   0  0  0  0  0
    6.4675    7.2282    8.6380 H   0  0  0  0  0
    5.3441    9.3605    8.8480 H   0  0  0  0  0
    6.2538   11.6375   10.1655 C   0  0  0  0  0
    6.8712   12.6138   10.5983 O   0  0  0  0  0
    4.7980   11.7580    9.7882 C   0  0  0  0  0
    4.6693   11.6357    8.7108 H   0  0  0  0  0
    4.2031   11.0223   10.3364 H   0  0  0  0  0
    4.4359   12.7530   10.0662 H   0  0  0  0  0
    8.6688   10.8898   11.1347 H   0  0  0  0  0
    9.7868    8.7288   10.9547 H   0  0  0  0  0
   10.2837    6.2574    9.6768 C   0  0  0  0  0
   10.8455    5.0200    9.3273 C   0  0  0  0  0
   11.9241    4.8909    9.3774 H   0  0  0  0  0
   10.9504    7.0629    9.9675 H   0  0  0  0  0
    7.9570    3.4559    8.6284 H   0  0  0  0  0
  1  2  2  0  0  0
  2  3  1  0  0  0
  2  6  1  0  0  0
  3  4  1  0  0  0
  3  5  1  0  0  0
  6  7  2  0  0  0
  6 27  1  0  0  0
  7  8  1  0  0  0
  7 30  1  0  0  0
  8  9  2  0  0  0
  9 10  1  0  0  0
  9 26  1  0  0  0
 10 11  2  0  0  0
 10 15  1  0  0  0
 11 12  1  0  0  0
 11 25  1  0  0  0
 12 13  2  0  0  0
 12 24  1  0  0  0
 13 14  1  0  0  0
 13 18  1  0  0  0
 14 15  2  0  0  0
 14 17  1  0  0  0
 15 16  1  0  0  0
 18 19  2  0  0  0
 18 20  1  0  0  0
 20 21  1  0  0  0
 20 22  1  0  0  0
 20 23  1  0  0  0
 26 27  2  0  0  0
 26 29  1  0  0  0
 27 28  1  0  0  0
M  END
> <Chemgauss4>
-11.605581

> <Unaligned Pharm. Score (w/o EVS)>
47.21

> <Binding Affinity Score>
-20.82

> <AlignmentState>
unalignable

$$$$
MolPort-020-182-708_1_1_1_1
XX    ILIB11172101263D

 37 39  0  0  1  0              1 V2000
   10.4610    8.5240    6.7890 Br  0  0  0  0  0
    8.9661    8.2468    7.9167 C   0  0  0  0  0
    8.8917    7.0793    8.6818 C   0  0  0  0  0
    7.7703    6.9135    9.5022 C   0  0  0  0  0
    7.4340    5.8829   10.3507 N   0  0  0  0  0
    6.2352    6.1434   10.9584 C   0  0  0  0  0
    5.7839    7.3599   10.5006 C   0  0  0  0  0
    6.7454    7.8591    9.5779 C   0  0  0  0  0
    6.8423    9.0283    8.7975 C   0  0  0  0  0
    7.9583    9.2076    7.9722 C   0  0  0  0  0
    8.0220   10.1139    7.3746 H   0  0  0  0  0
    6.0638    9.7851    8.8308 H   0  0  0  0  0
    4.8613    7.8387   10.7991 H   0  0  0  0  0
    5.8024    5.4461   11.6634 H   0  0  0  0  0
    8.2225    4.6876   10.5792 C   0  0  0  0  0
    9.0178    4.3443    9.3450 C   0  0  0  0  0
    8.4436    4.0993    8.2827 O   0  0  0  0  0
   10.3940    4.3195    9.5091 N   0  0  0  0  0
   11.3132    4.1658    8.3891 C   0  0  2  0  0
   11.3439    2.7084    8.0395 C   0  0  0  0  0
   12.3818    2.0516    8.0692 O   0  0  0  0  0
   10.1204    2.2004    7.6717 N   0  0  0  0  0
   10.0561    1.2197    7.4195 H   0  0  0  0  0
    9.2789    2.7670    7.6424 H   0  0  0  0  0
   12.6573    4.6484    8.9221 C   0  0  0  0  0
   12.5769    4.3434   10.4159 C   0  0  0  0  0
   11.1151    4.6027   10.7474 C   0  0  0  0  0
   10.7503    3.9740   11.5642 H   0  0  0  0  0
   10.9460    5.6544   11.0029 H   0  0  0  0  0
   12.8290    3.2935   10.6049 H   0  0  0  0  0
   13.2550    4.9698   11.0023 H   0  0  0  0  0
   12.7536    5.7302    8.7712 H   0  0  0  0  0
   13.5157    4.1537    8.4573 H   0  0  0  0  0
   10.9680    4.7300    7.5175 H   0  0  0  0  0
    8.9110    4.8590   11.4035 H   0  0  0  0  0
    7.5616    3.8561   10.8134 H   0  0  0  0  0
    9.6725    6.3256    8.6457 H   0  0  0  0  0
  1  2  1  0  0  0
  2  3  2  0  0  0
  2 10  1  0  0  0
  3  4  1  0  0  0
  3 37  1  0  0  0
  4  5  1  0  0  0
  4  8  2  0  0  0
  5  6  1  0  0  0
  5 15  1  0  0  0
  6  7  2  0  0  0
  6 14  1  0  0  0
  7  8  1  0  0  0
  7 13  1  0  0  0
  8  9  1  0  0  0
  9 10  2  0  0  0
  9 12  1  0  0  0
 10 11  1  0  0  0
 15 16  1  0  0  0
 15 35  1  0  0  0
 15 36  1  0  0  0
 16 17  2  0  0  0
 16 18  1  0  0  0
 18 19  1  0  0  0
 18 27  1  0  0  0
 19 20  1  0  0  0
 19 25  1  0  0  0
 19 34  1  0  0  0
 20 21  2  0  0  0
 20 22  1  0  0  0
 22 23  1  0  0  0
 22 24  1  0  0  0
 25 26  1  0  0  0
 25 32  1  0  0  0
 25 33  1  0  0  0
 26 27  1  0  0  0
 26 30  1  0  0  0
 26 31  1  0  0  0
 27 28  1  0  0  0
 27 29  1  0  0  0
M  END
> <Chemgauss4>
-5.093211

> <Unaligned Pharm. Score (w/o EVS)>
55.9

> <Binding Affinity Score>
-26.88

> <AlignmentState>
unalignable

$$$$
MolPort-019-913-286_1_1_1_1
XX    ILIB11172101263D

 29 30  0  0  1  0              1 V2000
   12.4416    4.0041    9.6034 S   0  0  0  0  0
   12.1822    2.6624    8.6576 N   0  0  0  0  0
   10.9183    2.6894    8.2416 C   0  0  0  0  0
   10.3821    1.7239    7.4414 N   0  0  0  0  0
    9.3949    1.7405    7.1720 H   0  0  0  0  0
   10.9230    0.9015    7.1609 H   0  0  0  0  0
   10.1156    3.7865    8.6663 C   0  0  0  0  0
   10.8553    4.6344    9.4618 C   0  0  0  0  0
   10.4614    5.8290   10.0896 N   0  0  0  0  0
    9.2356    6.5336   10.1199 C   0  0  0  0  0
    8.0905    5.9194   10.6272 C   0  0  0  0  0
    6.8817    6.6147   10.6581 C   0  0  0  0  0
    6.8180    7.9241   10.1819 C   0  0  0  0  0
    7.9630    8.5383    9.6746 C   0  0  0  0  0
    9.1718    7.8430    9.6436 C   0  0  0  0  0
   10.3817    8.5278    9.0957 C   0  0  0  0  0
   10.9150    9.0532    9.8960 H   0  0  0  0  0
   11.0672    7.8085    8.6315 H   0  0  0  0  0
   10.1080    9.2545    8.3211 H   0  0  0  0  0
    7.9028    9.5590    9.3066 H   0  0  0  0  0
    5.8767    8.4654   10.2057 H   0  0  0  0  0
    5.9834    6.1450   11.0509 H   0  0  0  0  0
    8.1280    4.5181   11.1452 C   0  0  0  0  0
    7.9104    3.8097   10.3379 H   0  0  0  0  0
    9.1119    4.2783   11.5660 H   0  0  0  0  0
    7.3932    4.3730   11.9463 H   0  0  0  0  0
   11.1963    6.2758   10.6272 H   0  0  0  0  0
    8.7409    4.0102    8.3373 C   0  0  0  0  0
    7.6261    4.1917    8.0706 N   0  0  0  0  0
  1  2  1  0  0  0
  1  8  1  0  0  0
  2  3  2  0  0  0
  3  4  1  0  0  0
  3  7  1  0  0  0
  4  5  1  0  0  0
  4  6  1  0  0  0
  7  8  2  0  0  0
  7 28  1  0  0  0
  8  9  1  0  0  0
  9 10  1  0  0  0
  9 27  1  0  0  0
 10 11  2  0  0  0
 10 15  1  0  0  0
 11 12  1  0  0  0
 11 23  1  0  0  0
 12 13  2  0  0  0
 12 22  1  0  0  0
 13 14  1  0  0  0
 13 21  1  0  0  0
 14 15  2  0  0  0
 14 20  1  0  0  0
 15 16  1  0  0  0
 16 17  1  0  0  0
 16 18  1  0  0  0
 16 19  1  0  0  0
 23 24  1  0  0  0
 23 25  1  0  0  0
 23 26  1  0  0  0
 28 29  3  0  0  0
M  END
> <Chemgauss4>
-8.405993

> <Unaligned Pharm. Score (w/o EVS)>
56.44

> <Binding Affinity Score>
-23.29

> <AlignmentState>
ALIGN_BY_TOLERANCE_COVER

$$$$
MolPort-005-066-645_1_1_1_1
XX    ILIB11172101263D

 25 26  0  0  1  0              1 V2000
    7.7485   10.7038   11.3514 Cl  0  0  0  0  0
    7.2269    9.3755   10.3894 C   0  0  0  0  0
    8.0776    8.2907   10.1770 C   0  0  0  0  0
    7.6540    7.2145    9.3971 C   0  0  0  0  0
    8.5358    6.0889    9.1764 C   0  0  0  0  0
    8.0213    5.1039    8.4065 N   0  0  0  0  0
    8.8214    4.0375    8.1822 C   0  0  0  0  0
   10.1047    3.9104    8.6888 C   0  0  0  0  0
   10.5988    4.9442    9.4764 C   0  0  0  0  0
    9.8057    6.0578    9.7298 C   0  0  0  0  0
   10.1837    6.8693   10.3431 H   0  0  0  0  0
   11.5995    4.8915    9.8971 H   0  0  0  0  0
   10.9097    2.7352    8.4054 C   0  0  0  0  0
   12.0575    2.6061    8.8690 O   0  0  0  0  0
   10.3485    1.7401    7.6089 N   0  0  0  0  0
    9.4088    1.8263    7.2353 H   0  0  0  0  0
   10.8914    0.9100    7.3972 H   0  0  0  0  0
    8.3811    3.2638    7.5604 H   0  0  0  0  0
    6.3799    7.2233    8.8296 C   0  0  0  0  0
    5.5292    8.3081    9.0420 C   0  0  0  0  0
    5.9528    9.3843    9.8218 C   0  0  0  0  0
    5.2791   10.2228    9.9787 H   0  0  0  0  0
    4.5371    8.3150    8.6001 H   0  0  0  0  0
    6.0351    6.3920    8.2192 H   0  0  0  0  0
    9.0716    8.2848   10.6203 H   0  0  0  0  0
  1  2  1  0  0  0
  2  3  2  0  0  0
  2 21  1  0  0  0
  3  4  1  0  0  0
  3 25  1  0  0  0
  4  5  1  0  0  0
  4 19  2  0  0  0
  5  6  2  0  0  0
  5 10  1  0  0  0
  6  7  1  0  0  0
  7  8  2  0  0  0
  7 18  1  0  0  0
  8  9  1  0  0  0
  8 13  1  0  0  0
  9 10  2  0  0  0
  9 12  1  0  0  0
 10 11  1  0  0  0
 13 14  2  0  0  0
 13 15  1  0  0  0
 15 16  1  0  0  0
 15 17  1  0  0  0
 19 20  1  0  0  0
 19 24  1  0  0  0
 20 21  2  0  0  0
 20 23  1  0  0  0
 21 22  1  0  0  0
M  END
> <Chemgauss4>
-11.41805

> <Unaligned Pharm. Score (w/o EVS)>
47.59

> <Binding Affinity Score>
-20.24

> <AlignmentState>
unalignable

$$$$
MolPort-008-334-582_1_3_1_1
XX    ILIB11172101263D

 45 48  0  0  1  0              1 V2000
    2.8963    6.7936   11.9561 O   0  0  0  0  0
    3.3989    7.3546   10.9734 C   0  0  0  0  0
    2.7328    8.2470   10.1785 O   0  0  0  0  0
    1.3733    8.5326   10.5249 C   0  0  0  0  0
    0.9599    9.2544    9.8162 H   0  0  0  0  0
    1.3321    8.9372   11.5393 H   0  0  0  0  0
    0.7932    7.6079   10.4797 H   0  0  0  0  0
    4.7658    7.1513   10.5201 C   0  0  0  0  0
    5.6061    6.2744   11.2063 C   0  0  0  0  0
    6.9170    6.0804   10.7710 C   0  0  0  0  0
    7.3877    6.7634    9.6495 C   0  0  0  0  0
    6.5475    7.6403    8.9634 C   0  0  0  0  0
    5.2365    7.8342    9.3987 C   0  0  0  0  0
    4.5908    8.5198    8.8562 H   0  0  0  0  0
    6.9061    8.1770    8.0889 H   0  0  0  0  0
    8.8156    6.5527    9.1765 C   0  0  2  0  0
    9.0352    5.1882    8.6977 N   0  0  0  0  0
    8.0861    4.4967    8.0393 N   0  0  0  0  0
    8.6990    3.3482    7.7462 C   0  0  0  0  0
   10.0402    3.3263    8.1722 C   0  0  0  0  0
   10.2494    4.5520    8.7694 C   0  0  0  0  0
   11.3542    5.1260    9.3034 N   0  0  0  0  0
   11.1958    6.2270    9.9717 C   0  0  0  0  0
    9.8510    6.8847   10.2668 C   0  0  1  0  0
   10.0166    8.3936   10.4035 C   0  0  0  0  0
    9.1917    9.0880   10.9953 O   0  0  0  0  0
   11.2025    9.0043    9.6910 C   0  0  0  0  0
   12.5208    8.3434   10.0902 C   0  0  0  0  0
   12.4059    6.8997   10.5738 C   0  0  0  0  0
   12.3129    6.8640   11.6687 H   0  0  0  0  0
   13.3158    6.3454   10.3030 H   0  0  0  0  0
   13.0075    8.9552   10.8837 H   0  0  0  0  0
   13.2240    8.3825    9.2252 H   0  0  0  0  0
   11.0567    8.8959    8.6031 H   0  0  0  0  0
   11.2197   10.0851    9.9090 H   0  0  0  0  0
    9.5410    6.5097   11.2332 H   0  0  0  0  0
   11.0151    2.2886    8.0177 C   0  0  0  0  0
   12.1832    2.3942    8.4646 O   0  0  0  0  0
   10.6385    1.1091    7.3596 N   0  0  0  0  0
   11.3245    0.3706    7.2471 H   0  0  0  0  0
    9.7030    0.9691    6.9919 H   0  0  0  0  0
    8.1444    2.5811    7.2238 H   0  0  0  0  0
    8.9756    7.1878    8.2783 H   0  0  0  0  0
    7.5648    5.3957   11.3117 H   0  0  0  0  0
    5.2491    5.7375   12.0813 H   0  0  0  0  0
  1  2  2  0  0  0
  2  3  1  0  0  0
  2  8  1  0  0  0
  3  4  1  0  0  0
  4  5  1  0  0  0
  4  6  1  0  0  0
  4  7  1  0  0  0
  8  9  2  0  0  0
  8 13  1  0  0  0
  9 10  1  0  0  0
  9 45  1  0  0  0
 10 11  2  0  0  0
 10 44  1  0  0  0
 11 12  1  0  0  0
 11 16  1  0  0  0
 12 13  2  0  0  0
 12 15  1  0  0  0
 13 14  1  0  0  0
 16 17  1  0  0  0
 16 24  1  0  0  0
 16 43  1  0  0  0
 17 18  1  0  0  0
 17 21  1  0  0  0
 18 19  2  0  0  0
 19 20  1  0  0  0
 19 42  1  0  0  0
 20 21  2  0  0  0
 20 37  1  0  0  0
 21 22  1  0  0  0
 22 23  2  0  0  0
 23 24  1  0  0  0
 23 29  1  0  0  0
 24 25  1  0  0  0
 24 36  1  0  0  0
 25 26  2  0  0  0
 25 27  1  0  0  0
 27 28  1  0  0  0
 27 34  1  0  0  0
 27 35  1  0  0  0
 28 29  1  0  0  0
 28 32  1  0  0  0
 28 33  1  0  0  0
 29 30  1  0  0  0
 29 31  1  0  0  0
 37 38  2  0  0  0
 37 39  1  0  0  0
 39 40  1  0  0  0
 39 41  1  0  0  0
M  END
> <Chemgauss4>
-5.843906

> <Unaligned Pharm. Score (w/o EVS)>
56.41

> <Binding Affinity Score>
-20.67

> <AlignmentState>
unalignable

$$$$
