MolPort-020-232-854_1_1_2_1
XX    ILIB10292106163D

 38 41  0  0  1  0              1 V2000
    7.1433    5.9199    8.5416 O   0  0  0  0  0
    8.1448    5.2111    8.5405 C   0  0  0  0  0
    8.2738    4.0526    7.8012 N   0  0  0  0  0
    9.4141    3.2639    7.7994 C   0  0  0  0  0
   10.4612    3.5707    8.5118 N   0  0  0  0  0
   10.4077    4.7134    9.2794 C   0  0  0  0  0
    9.3466    5.5400    9.3508 C   0  0  0  0  0
    9.3073    6.7626   10.2186 C   0  0  0  0  0
   10.4183    6.7522   11.2621 C   0  0  0  0  0
   11.6824    6.3256   10.6673 N   0  0  0  0  0
   12.8013    7.1602   10.7697 C   0  0  0  0  0
   12.7756    8.3903   10.7816 O   0  0  0  0  0
   14.1284    6.5361   10.8823 C   0  0  0  0  0
   14.6890    5.6944    9.9470 N   0  0  0  0  0
   15.9274    5.2395   10.2727 N   0  0  0  0  0
   16.1252    5.8262   11.4448 C   0  0  0  0  0
   15.0654    6.6275   11.8680 C   0  0  0  0  0
   15.3249    7.2560   13.1720 C   0  0  0  0  0
   16.8592    6.9825   13.3570 C   0  0  0  0  0
   17.2452    5.8017   12.3993 C   0  0  0  0  0
   17.2754    4.8685   12.8796 H   0  0  0  0  0
   18.1469    5.9600   11.8850 H   0  0  0  0  0
   17.0667    6.7102   14.3496 H   0  0  0  0  0
   17.4174    7.8351   13.1040 H   0  0  0  0  0
   14.7312    6.7967   13.9062 H   0  0  0  0  0
   15.0900    8.2781   13.1208 H   0  0  0  0  0
   14.2584    5.4094    9.0790 H   0  0  0  0  0
   11.6820    4.9915   10.0462 C   0  0  0  0  0
   11.7786    4.2584   10.7916 H   0  0  0  0  0
   12.4868    4.9173    9.3759 H   0  0  0  0  0
   10.5249    7.7207   11.6535 H   0  0  0  0  0
   10.1532    6.0904   12.0329 H   0  0  0  0  0
    8.3854    6.8070   10.7192 H   0  0  0  0  0
    9.4233    7.6190    9.6222 H   0  0  0  0  0
    9.3656    2.1498    7.0038 N   0  0  0  0  0
   10.1614    1.5299    6.9538 H   0  0  0  0  0
    8.5340    1.9483    6.4672 H   0  0  0  0  0
    7.5107    3.7371    7.2195 H   0  0  0  0  0
  1  2  2  0  0  0
  2  3  1  0  0  0
  2  7  1  0  0  0
  3  4  1  0  0  0
  3 38  1  0  0  0
  4  5  2  0  0  0
  4 35  1  0  0  0
  5  6  1  0  0  0
  6  7  2  0  0  0
  6 28  1  0  0  0
  7  8  1  0  0  0
  8  9  1  0  0  0
  8 33  1  0  0  0
  8 34  1  0  0  0
  9 10  1  0  0  0
  9 31  1  0  0  0
  9 32  1  0  0  0
 10 11  1  0  0  0
 10 28  1  0  0  0
 11 12  2  0  0  0
 11 13  1  0  0  0
 13 14  1  0  0  0
 13 17  2  0  0  0
 14 15  1  0  0  0
 14 27  1  0  0  0
 15 16  2  0  0  0
 16 17  1  0  0  0
 16 20  1  0  0  0
 17 18  1  0  0  0
 18 19  1  0  0  0
 18 25  1  0  0  0
 18 26  1  0  0  0
 19 20  1  0  0  0
 19 23  1  0  0  0
 19 24  1  0  0  0
 20 21  1  0  0  0
 20 22  1  0  0  0
 28 29  1  0  0  0
 28 30  1  0  0  0
 35 36  1  0  0  0
 35 37  1  0  0  0
M  END
> <Chemgauss4>
-12.731445

> <Unaligned Pharm. Score (w/o EVS)>
56.25

> <MMFF94 Energy>
-104.76963

> <Binding Affinity Score>
-27.2

> <AlignmentState>
ALIGN_BY_TOLERANCE_COVER

$$$$
MolPort-000-437-543_1_8_1_1
XX    ILIB10292106163D

 38 42  0  0  1  0              1 V2000
   11.0315    7.8226   12.0156 S   0  0  0  0  0
   12.7568    7.4589   11.8200 C   0  0  0  0  0
   13.6374    7.9365   12.5174 O   0  0  0  0  0
   12.8783    6.5643   10.7747 N   0  0  0  0  0
   11.7096    6.1950   10.1636 C   0  0  0  0  0
   11.7460    5.0325    8.8916 S   0  0  0  0  0
   10.0333    4.5174    9.0180 C   0  0  2  0  0
    9.5190    3.6441    7.9154 C   0  0  0  0  0
   10.1291    2.7699    7.3229 O   0  0  0  0  0
    8.1822    3.9796    7.7844 N   0  0  0  0  0
    7.8223    5.1076    8.5018 C   0  0  0  0  0
    6.7002    5.5450    8.6937 O   0  0  0  0  0
    9.1271    5.7477    8.9231 C   0  0  1  0  0
    9.1655    6.5813   10.2178 C   0  0  1  0  0
   10.6070    6.7794   10.6699 C   0  0  0  0  0
    8.4810    7.8838   10.0027 C   0  0  0  0  0
    9.0820    9.0490    9.5856 C   0  0  0  0  0
    8.1169   10.0172    9.5097 N   0  0  0  0  0
    6.8942    9.4982    9.8716 C   0  0  0  0  0
    7.0959    8.1530   10.1875 C   0  0  0  0  0
    5.9912    7.3788   10.5945 C   0  0  0  0  0
    4.7285    7.9779   10.6701 C   0  0  0  0  0
    4.5568    9.3229   10.3486 C   0  0  0  0  0
    5.6378   10.1105    9.9425 C   0  0  0  0  0
    5.5338   11.1256    9.6952 H   0  0  0  0  0
    3.6039    9.7598   10.4096 H   0  0  0  0  0
    3.8965    7.4129   10.9719 H   0  0  0  0  0
    6.1210    6.3654   10.8366 H   0  0  0  0  0
    8.3631   11.3838    9.1023 C   0  0  0  0  0
    7.4701   11.9329    9.1613 H   0  0  0  0  0
    8.7169   11.3960    8.1138 H   0  0  0  0  0
    9.0810   11.8141    9.7363 H   0  0  0  0  0
   10.1135    9.0669    9.3902 H   0  0  0  0  0
    8.6333    6.0810   10.9721 H   0  0  0  0  0
    9.5166    6.4153    8.2125 H   0  0  0  0  0
    7.5746    3.4169    7.2061 H   0  0  0  0  0
    9.8962    3.9726    9.9051 H   0  0  0  0  0
   13.7901    6.2240   10.5046 H   0  0  0  0  0
  1  2  1  0  0  0
  1 15  1  0  0  0
  2  3  2  0  0  0
  2  4  1  0  0  0
  4  5  1  0  0  0
  4 38  1  0  0  0
  5  6  1  0  0  0
  5 15  2  0  0  0
  6  7  1  0  0  0
  7  8  1  0  0  0
  7 13  1  0  0  0
  7 37  1  0  0  0
  8  9  2  0  0  0
  8 10  1  0  0  0
 10 11  1  0  0  0
 10 36  1  0  0  0
 11 12  2  0  0  0
 11 13  1  0  0  0
 13 14  1  0  0  0
 13 35  1  0  0  0
 14 15  1  0  0  0
 14 16  1  0  0  0
 14 34  1  0  0  0
 16 17  2  0  0  0
 16 20  1  0  0  0
 17 18  1  0  0  0
 17 33  1  0  0  0
 18 19  1  0  0  0
 18 29  1  0  0  0
 19 20  2  0  0  0
 19 24  1  0  0  0
 20 21  1  0  0  0
 21 22  2  0  0  0
 21 28  1  0  0  0
 22 23  1  0  0  0
 22 27  1  0  0  0
 23 24  2  0  0  0
 23 26  1  0  0  0
 24 25  1  0  0  0
 29 30  1  0  0  0
 29 31  1  0  0  0
 29 32  1  0  0  0
M  END
> <Chemgauss4>
-10.120581

> <Unaligned Pharm. Score (w/o EVS)>
55.98

> <Binding Affinity Score>
-20.96

> <AlignmentState>
ALIGN_BY_TOLERANCE_COVER

$$$$
MolPort-003-903-509_1_1_1_1
XX    ILIB10292106163D

 37 39  0  0  1  0              1 V2000
   11.9501    4.5148    9.5586 S   0  0  0  0  0
   10.4936    4.1705    8.7328 C   0  0  0  0  0
   10.3615    3.0626    7.9494 N   0  0  0  0  0
    9.1914    2.9581    7.3988 C   0  0  0  0  0
    8.1413    3.8532    7.5554 N   0  0  0  0  0
    8.2275    4.9993    8.3453 C   0  0  0  0  0
    7.3106    5.8001    8.4949 O   0  0  0  0  0
    9.5319    5.1378    8.9735 C   0  0  0  0  0
    9.9987    6.1644    9.8415 C   0  0  0  0  0
   11.3010    5.9475   10.2349 C   0  0  0  0  0
   12.1282    6.7343   11.0933 C   0  0  0  0  0
   11.7221    7.7778   11.6551 O   0  0  0  0  0
   13.4381    6.2464   11.3114 N   0  0  0  0  0
   14.4706    6.7743   12.1270 C   0  0  0  0  0
   14.2891    6.9268   13.5016 C   0  0  0  0  0
   15.3170    7.4481   14.2872 C   0  0  0  0  0
   16.5265    7.8169   13.6983 C   0  0  0  0  0
   16.7080    7.6644   12.3237 C   0  0  0  0  0
   15.6801    7.1430   11.5381 C   0  0  0  0  0
   15.8168    7.0281   10.5034 H   0  0  0  0  0
   17.6184    7.9421   11.8803 H   0  0  0  0  0
   17.6249    8.3766   14.5379 C   0  0  0  0  0
   18.5425    8.2501   14.0435 H   0  0  0  0  0
   17.4537    9.3995   14.7017 H   0  0  0  0  0
   17.6517    7.8742   15.4595 H   0  0  0  0  0
   15.1804    7.5629   15.3219 H   0  0  0  0  0
   13.0029    6.5430   14.1589 C   0  0  0  0  0
   12.3364    7.3535   14.1237 H   0  0  0  0  0
   12.5835    5.7228   13.6551 H   0  0  0  0  0
   13.1852    6.2830   15.1597 H   0  0  0  0  0
   13.5952    5.4006   10.7822 H   0  0  0  0  0
    9.1912    7.3313   10.2774 C   0  0  0  0  0
    9.2749    7.4458   11.3178 H   0  0  0  0  0
    8.1847    7.1753   10.0223 H   0  0  0  0  0
    9.5429    8.1981    9.8005 H   0  0  0  0  0
    7.2848    3.6421    7.0636 H   0  0  0  0  0
    9.0721    2.1099    6.7915 H   0  0  0  0  0
  1  2  1  0  0  0
  1 10  1  0  0  0
  2  3  1  0  0  0
  2  8  2  0  0  0
  3  4  2  0  0  0
  4  5  1  0  0  0
  4 37  1  0  0  0
  5  6  1  0  0  0
  5 36  1  0  0  0
  6  7  2  0  0  0
  6  8  1  0  0  0
  8  9  1  0  0  0
  9 10  2  0  0  0
  9 32  1  0  0  0
 10 11  1  0  0  0
 11 12  2  0  0  0
 11 13  1  0  0  0
 13 14  1  0  0  0
 13 31  1  0  0  0
 14 15  2  0  0  0
 14 19  1  0  0  0
 15 16  1  0  0  0
 15 27  1  0  0  0
 16 17  2  0  0  0
 16 26  1  0  0  0
 17 18  1  0  0  0
 17 22  1  0  0  0
 18 19  2  0  0  0
 18 21  1  0  0  0
 19 20  1  0  0  0
 22 23  1  0  0  0
 22 24  1  0  0  0
 22 25  1  0  0  0
 27 28  1  0  0  0
 27 29  1  0  0  0
 27 30  1  0  0  0
 32 33  1  0  0  0
 32 34  1  0  0  0
 32 35  1  0  0  0
M  END
> <Chemgauss4>
-10.741845

> <Unaligned Pharm. Score (w/o EVS)>
56.73

> <MMFF94 Energy>
-18.15507

> <Binding Affinity Score>
-24.04

> <AlignmentState>
unalignable

$$$$
MolPort-027-923-237_1_1_1_1
XX    ILIB10292106163D

 29 30  0  0  1  0              1 V2000
   13.9943    5.9222   14.2714 Cl  0  0  0  0  0
   15.2239    6.5912   13.2587 C   0  0  0  0  0
   16.5369    6.6243   13.7282 C   0  0  0  0  0
   16.8442    6.1467   14.9429 F   0  0  0  0  0
   17.5491    7.1599   12.9319 C   0  0  0  0  0
   17.2483    7.6624   11.6659 C   0  0  0  0  0
   15.9353    7.6293   11.1963 C   0  0  0  0  0
   14.9231    7.0937   11.9926 C   0  0  0  0  0
   13.5663    7.0817   11.4591 C   0  0  0  0  0
   12.7906    8.0279   11.6409 O   0  0  0  0  0
   13.2379    5.9470   10.7041 N   0  0  0  0  0
   12.0235    5.6608   10.0309 C   0  0  0  0  0
   11.8597    4.4810    9.3229 C   0  0  0  0  0
   10.7297    4.1465    8.6605 N   0  0  0  0  0
    9.7167    5.0402    8.7124 C   0  0  0  0  0
    9.7799    6.2460    9.3920 C   0  0  0  0  0
   10.9589    6.5547   10.0612 C   0  0  0  0  0
   11.0472    7.4587   10.5880 H   0  0  0  0  0
    8.9533    6.8935    9.3904 H   0  0  0  0  0
    8.5080    4.6640    7.9996 C   0  0  0  0  0
    7.5140    5.4119    7.9659 O   0  0  0  0  0
    8.5009    3.4407    7.3342 N   0  0  0  0  0
    9.3185    2.8483    7.3578 H   0  0  0  0  0
    7.6781    3.1459    6.8280 H   0  0  0  0  0
   12.6824    3.8285    9.3205 H   0  0  0  0  0
   14.0011    5.2863   10.6717 H   0  0  0  0  0
   15.7089    8.0076   10.2433 H   0  0  0  0  0
   18.0103    8.0656   11.0664 H   0  0  0  0  0
   18.5375    7.1848   13.2854 H   0  0  0  0  0
  1  2  1  0  0  0
  2  3  2  0  0  0
  2  8  1  0  0  0
  3  4  1  0  0  0
  3  5  1  0  0  0
  5  6  2  0  0  0
  5 29  1  0  0  0
  6  7  1  0  0  0
  6 28  1  0  0  0
  7  8  2  0  0  0
  7 27  1  0  0  0
  8  9  1  0  0  0
  9 10  2  0  0  0
  9 11  1  0  0  0
 11 12  1  0  0  0
 11 26  1  0  0  0
 12 13  2  0  0  0
 12 17  1  0  0  0
 13 14  1  0  0  0
 13 25  1  0  0  0
 14 15  2  0  0  0
 15 16  1  0  0  0
 15 20  1  0  0  0
 16 17  2  0  0  0
 16 19  1  0  0  0
 17 18  1  0  0  0
 20 21  2  0  0  0
 20 22  1  0  0  0
 22 23  1  0  0  0
 22 24  1  0  0  0
M  END
> <Chemgauss4>
-5.725421

> <Unaligned Pharm. Score (w/o EVS)>
56.46

> <MMFF94 Energy>
63.71684

> <Binding Affinity Score>
-22.5

> <AlignmentState>
ALIGN_BY_TOLERANCE_COVER

$$$$
MolPort-046-438-314_6_1_6_1
XX    ILIB10292106163D

 29 31  0  0  1  0              1 V2000
    5.0650    8.0794    8.7674 O   0  0  0  0  0
    6.1074    7.6474    9.5246 C   0  0  0  0  0
    7.1379    6.7025    9.0575 C   0  0  0  0  0
    6.8712    5.7667    8.1425 N   0  0  0  0  0
    8.0489    5.1351    7.9999 N   0  0  0  0  0
    9.0423    5.6368    8.7883 C   0  0  0  0  0
    8.4753    6.6686    9.4957 C   0  0  0  0  0
    8.8094    7.3558   10.2159 H   0  0  0  0  0
   10.3790    5.1407    8.8220 C   0  0  0  0  0
   10.6421    3.9364    8.5696 O   0  0  0  0  0
   11.4167    6.0498    9.1266 N   0  0  0  0  0
   12.8196    5.7062    9.1771 C   0  0  0  0  0
   13.5621    6.5242   10.1938 C   0  0  0  0  0
   13.0593    7.2617   11.1580 N   0  0  0  0  0
   14.1168    7.8292   11.8405 N   0  0  0  0  0
   15.2242    7.4161   11.2666 C   0  0  0  0  0
   14.9219    6.5923   10.2251 N   0  0  0  0  0
   15.4689    6.0804    9.5477 H   0  0  0  0  0
   16.1555    7.7329   11.6337 H   0  0  0  0  0
   12.9228    4.6930    9.4325 H   0  0  0  0  0
   13.2557    5.8764    8.2372 H   0  0  0  0  0
   11.1992    7.0153    9.3283 H   0  0  0  0  0
    8.1335    4.3645    7.3526 H   0  0  0  0  0
    6.0618    8.2134   10.7774 C   0  0  0  0  0
    4.9178    9.0466   10.7909 C   0  0  0  0  0
    4.3460    8.9306    9.5453 C   0  0  0  0  0
    3.4840    9.3912    9.1616 H   0  0  0  0  0
    4.6744    9.5903   11.6556 H   0  0  0  0  0
    6.8008    7.9804   11.4860 H   0  0  0  0  0
  1  2  1  0  0  0
  1 26  1  0  0  0
  2  3  1  0  0  0
  2 24  2  0  0  0
  3  4  2  0  0  0
  3  7  1  0  0  0
  4  5  1  0  0  0
  5  6  1  0  0  0
  5 23  1  0  0  0
  6  7  2  0  0  0
  6  9  1  0  0  0
  7  8  1  0  0  0
  9 10  2  0  0  0
  9 11  1  0  0  0
 11 12  1  0  0  0
 11 22  1  0  0  0
 12 13  1  0  0  0
 12 20  1  0  0  0
 12 21  1  0  0  0
 13 14  2  0  0  0
 13 17  1  0  0  0
 14 15  1  0  0  0
 15 16  2  0  0  0
 16 17  1  0  0  0
 16 19  1  0  0  0
 17 18  1  0  0  0
 24 25  1  0  0  0
 24 29  1  0  0  0
 25 26  2  0  0  0
 25 28  1  0  0  0
 26 27  1  0  0  0
M  END
> <Chemgauss4>
-7.808547

> <Unaligned Pharm. Score (w/o EVS)>
56.19

> <Binding Affinity Score>
-21.89

> <AlignmentState>
ALIGN_BY_TOLERANCE_COVER

$$$$
MolPort-039-265-725_1_1_1_1
XX    ILIB10292106163D

 35 37  0  0  1  0              1 V2000
    7.6944    8.1100    9.9120 S   0  0  0  0  0
    7.0375    6.5301    9.9814 C   0  0  0  0  0
    7.6515    5.4767    9.2008 C   0  0  0  0  0
    6.9920    4.8228    8.2846 N   0  0  0  0  0
    7.8852    3.9197    7.7985 N   0  0  0  0  0
    9.1126    4.0511    8.4429 C   0  0  0  0  0
   10.4400    3.1069    8.1149 S   0  0  0  0  0
    8.9557    5.0812    9.3480 N   0  0  0  0  0
    9.9854    5.6524   10.2113 C   0  0  0  0  0
   11.2162    6.0898    9.4284 C   0  0  0  0  0
   12.3219    6.6730   10.3026 C   0  0  0  0  0
   12.1398    7.6621   11.0042 O   0  0  0  0  0
   13.4853    5.9201   10.1723 N   0  0  0  0  0
   14.6948    6.1541   10.8316 C   0  0  0  0  0
   15.7785    5.3914   10.6622 N   0  0  0  0  0
   16.7470    5.9554   11.4840 O   0  0  0  0  0
   16.2223    7.0338   12.1201 C   0  0  0  0  0
   14.9176    7.2039   11.7395 C   0  0  0  0  0
   14.1443    7.8784   11.9622 H   0  0  0  0  0
   17.1165    7.7544   13.0351 C   0  0  0  0  0
   16.7701    8.7376   13.1610 H   0  0  0  0  0
   18.0865    7.7738   12.6335 H   0  0  0  0  0
   17.1324    7.2671   13.9650 H   0  0  0  0  0
   13.5032    5.1211    9.5548 H   0  0  0  0  0
   11.6205    5.2638    8.9218 H   0  0  0  0  0
   10.9446    6.8282    8.7331 H   0  0  0  0  0
    9.5992    6.4933   10.7075 H   0  0  0  0  0
   10.2863    4.9365   10.9180 H   0  0  0  0  0
    7.6088    3.2786    7.0686 H   0  0  0  0  0
    5.9460    6.4605   10.8191 C   0  0  0  0  0
    5.6449    7.7208   11.4115 C   0  0  0  0  0
    6.5178    8.7057   11.0043 C   0  0  0  0  0
    6.5258    9.7177   11.2840 H   0  0  0  0  0
    4.8344    7.8097   12.0730 H   0  0  0  0  0
    5.4455    5.5475   10.9544 H   0  0  0  0  0
  1  2  1  0  0  0
  1 32  1  0  0  0
  2  3  1  0  0  0
  2 30  2  0  0  0
  3  4  2  0  0  0
  3  8  1  0  0  0
  4  5  1  0  0  0
  5  6  1  0  0  0
  5 29  1  0  0  0
  6  7  2  0  0  0
  6  8  1  0  0  0
  8  9  1  0  0  0
  9 10  1  0  0  0
  9 27  1  0  0  0
  9 28  1  0  0  0
 10 11  1  0  0  0
 10 25  1  0  0  0
 10 26  1  0  0  0
 11 12  2  0  0  0
 11 13  1  0  0  0
 13 14  1  0  0  0
 13 24  1  0  0  0
 14 15  2  0  0  0
 14 18  1  0  0  0
 15 16  1  0  0  0
 16 17  1  0  0  0
 17 18  2  0  0  0
 17 20  1  0  0  0
 18 19  1  0  0  0
 20 21  1  0  0  0
 20 22  1  0  0  0
 20 23  1  0  0  0
 30 31  1  0  0  0
 30 35  1  0  0  0
 31 32  2  0  0  0
 31 34  1  0  0  0
 32 33  1  0  0  0
M  END
> <Chemgauss4>
-12.064392

> <Unaligned Pharm. Score (w/o EVS)>
56.89

> <MMFF94 Energy>
-26.15292

> <Binding Affinity Score>
-24.15

> <AlignmentState>
ALIGN_BY_TOLERANCE_COVER

$$$$
MolPort-009-765-314_1_1_1_1
XX    ILIB10292106163D

 35 38  0  0  1  0              1 V2000
   11.9421    4.6007    9.0817 S   0  0  0  0  0
   10.4417    4.2482    8.3426 C   0  0  0  0  0
   10.2529    3.1092    7.6176 N   0  0  0  0  0
    9.0558    3.0029    7.1286 C   0  0  0  0  0
    8.0302    3.9243    7.2940 N   0  0  0  0  0
    8.1741    5.1026    8.0259 C   0  0  0  0  0
    7.2794    5.9269    8.1823 O   0  0  0  0  0
    9.5096    5.2437    8.5844 C   0  0  0  0  0
   10.0354    6.2988    9.3817 C   0  0  0  0  0
   11.3512    6.0745    9.7223 C   0  0  0  0  0
   12.2599    6.9079   10.5281 C   0  0  0  0  0
   11.8721    7.9582   11.0356 O   0  0  0  0  0
   13.5594    6.3883   10.6923 N   0  0  0  0  0
   14.6220    6.9228   11.4228 C   0  0  0  0  0
   15.8454    6.2437   11.4572 C   0  0  0  0  0
   16.9142    6.7901   12.1952 C   0  0  0  0  0
   16.7172    7.9961   12.8711 C   0  0  0  0  0
   17.9006    8.3040   13.5036 N   0  0  0  0  0
   18.8364    7.3370   13.2515 C   0  0  0  0  0
   18.2557    6.3860   12.4444 C   0  0  0  0  0
   18.8114    5.5512   12.1332 H   0  0  0  0  0
   19.7996    7.4190   13.6613 H   0  0  0  0  0
   17.9741    9.1471   14.0549 H   0  0  0  0  0
   15.4999    8.6860   12.8458 C   0  0  0  0  0
   14.4542    8.1250   12.1072 C   0  0  0  0  0
   13.5311    8.6241   12.0730 H   0  0  0  0  0
   15.3979    9.5902   13.3697 H   0  0  0  0  0
   15.9583    5.3386   10.9371 H   0  0  0  0  0
   13.6763    5.5172   10.1947 H   0  0  0  0  0
    9.2701    7.4994    9.8018 C   0  0  0  0  0
    8.2553    7.3675    9.5668 H   0  0  0  0  0
    9.3745    7.6363   10.8376 H   0  0  0  0  0
    9.6392    8.3436    9.2982 H   0  0  0  0  0
    7.1474    3.7080    6.8535 H   0  0  0  0  0
    8.8926    2.1309    6.5670 H   0  0  0  0  0
  1  2  1  0  0  0
  1 10  1  0  0  0
  2  3  1  0  0  0
  2  8  2  0  0  0
  3  4  2  0  0  0
  4  5  1  0  0  0
  4 35  1  0  0  0
  5  6  1  0  0  0
  5 34  1  0  0  0
  6  7  2  0  0  0
  6  8  1  0  0  0
  8  9  1  0  0  0
  9 10  2  0  0  0
  9 30  1  0  0  0
 10 11  1  0  0  0
 11 12  2  0  0  0
 11 13  1  0  0  0
 13 14  1  0  0  0
 13 29  1  0  0  0
 14 15  2  0  0  0
 14 25  1  0  0  0
 15 16  1  0  0  0
 15 28  1  0  0  0
 16 17  2  0  0  0
 16 20  1  0  0  0
 17 18  1  0  0  0
 17 24  1  0  0  0
 18 19  1  0  0  0
 18 23  1  0  0  0
 19 20  2  0  0  0
 19 22  1  0  0  0
 20 21  1  0  0  0
 24 25  2  0  0  0
 24 27  1  0  0  0
 25 26  1  0  0  0
 30 31  1  0  0  0
 30 32  1  0  0  0
 30 33  1  0  0  0
M  END
> <Chemgauss4>
-10.410992

> <Unaligned Pharm. Score (w/o EVS)>
56.97

> <MMFF94 Energy>
-41.57424

> <Binding Affinity Score>
-23.69

> <AlignmentState>
unalignable

$$$$
MolPort-010-942-179_1_1_1_1
XX    ILIB10292106163D

 38 40  0  0  1  0              1 V2000
   17.3591    3.9087   12.6575 Cl  0  0  0  0  0
   16.1687    5.1471   12.8167 C   0  0  0  0  0
   16.0574    5.8886   13.9929 C   0  0  0  0  0
   16.8826    5.6605   15.0537 O   0  0  0  0  0
   18.0989    6.4032   15.0989 C   0  0  0  0  0
   17.8816    7.4304   15.1067 H   0  0  0  0  0
   18.6307    6.1513   15.9685 H   0  0  0  0  0
   18.6800    6.1748   14.2547 H   0  0  0  0  0
   15.0877    6.8855   14.0999 C   0  0  0  0  0
   14.2292    7.1410   13.0306 C   0  0  0  0  0
   14.3405    6.3994   11.8543 C   0  0  0  0  0
   13.4681    6.6596   10.7682 N   0  0  0  0  0
   12.1563    7.1350   10.8269 C   0  0  0  0  0
   11.7348    7.8940   11.7026 O   0  0  0  0  0
   11.3323    6.6906    9.7632 N   0  0  0  0  0
   11.4783    5.3934    9.0798 C   0  0  0  0  0
   10.1869    4.8781    8.4858 C   0  0  0  0  0
   10.2914    3.6139    7.9429 N   0  0  0  0  0
    9.2113    3.1136    7.4436 C   0  0  0  0  0
    7.9916    3.7427    7.4203 N   0  0  0  0  0
    7.8093    5.0048    7.9471 C   0  0  0  0  0
    6.7362    5.5997    7.9559 O   0  0  0  0  0
    9.0495    5.6006    8.5216 C   0  0  0  0  0
    8.9769    6.9840    9.0900 C   0  0  0  0  0
   10.3573    7.6195    9.1909 C   0  0  0  0  0
   10.2876    8.4725    9.7992 H   0  0  0  0  0
   10.6657    7.9009    8.2275 H   0  0  0  0  0
    8.5578    6.9456   10.0520 H   0  0  0  0  0
    8.3787    7.5856    8.4714 H   0  0  0  0  0
    7.2139    3.2533    7.0011 H   0  0  0  0  0
    9.3140    2.1521    7.0343 H   0  0  0  0  0
   11.8195    4.6738    9.7640 H   0  0  0  0  0
   12.1705    5.4868    8.2958 H   0  0  0  0  0
   13.7797    6.5002    9.8208 H   0  0  0  0  0
   15.3102    5.4025   11.7474 C   0  0  0  0  0
   15.3939    4.8443   10.8620 H   0  0  0  0  0
   13.4992    7.8915   13.1110 H   0  0  0  0  0
   15.0040    7.4436   14.9853 H   0  0  0  0  0
  1  2  1  0  0  0
  2  3  2  0  0  0
  2 35  1  0  0  0
  3  4  1  0  0  0
  3  9  1  0  0  0
  4  5  1  0  0  0
  5  6  1  0  0  0
  5  7  1  0  0  0
  5  8  1  0  0  0
  9 10  2  0  0  0
  9 38  1  0  0  0
 10 11  1  0  0  0
 10 37  1  0  0  0
 11 12  1  0  0  0
 11 35  2  0  0  0
 12 13  1  0  0  0
 12 34  1  0  0  0
 13 14  2  0  0  0
 13 15  1  0  0  0
 15 16  1  0  0  0
 15 25  1  0  0  0
 16 17  1  0  0  0
 16 32  1  0  0  0
 16 33  1  0  0  0
 17 18  1  0  0  0
 17 23  2  0  0  0
 18 19  2  0  0  0
 19 20  1  0  0  0
 19 31  1  0  0  0
 20 21  1  0  0  0
 20 30  1  0  0  0
 21 22  2  0  0  0
 21 23  1  0  0  0
 23 24  1  0  0  0
 24 25  1  0  0  0
 24 28  1  0  0  0
 24 29  1  0  0  0
 25 26  1  0  0  0
 25 27  1  0  0  0
 35 36  1  0  0  0
M  END
> <Chemgauss4>
-10.244976

> <Unaligned Pharm. Score (w/o EVS)>
57.29

> <MMFF94 Energy>
-65.70841

> <Binding Affinity Score>
-31.65

> <AlignmentState>
unalignable

$$$$
MolPort-044-520-775_1_1_1_1
XX    ILIB10292106163D

 37 39  0  0  1  0              1 V2000
    6.8752    5.1138    8.3102 O   0  0  0  0  0
    7.9443    4.5370    8.1376 C   0  0  0  0  0
    8.1174    3.4629    7.2888 N   0  0  0  0  0
    9.3371    2.8559    7.1225 C   0  0  0  0  0
   10.4252    3.2076    7.7213 N   0  0  0  0  0
   10.3289    4.2754    8.5898 C   0  0  0  0  0
    9.1909    4.9525    8.8420 C   0  0  0  0  0
    9.1139    6.0882    9.8149 C   0  0  0  0  0
   10.2962    6.0824   10.7748 C   0  0  0  0  0
   11.5584    5.8687   10.0661 N   0  0  0  0  0
   12.6437    6.7421   10.3254 C   0  0  0  0  0
   12.4751    7.9466   10.5292 O   0  0  0  0  0
   13.8893    6.1110   10.3521 N   0  0  0  0  0
   15.0289    6.4841   11.1073 C   0  0  0  0  0
   16.2027    5.7362   11.0147 C   0  0  0  0  0
   17.3244    6.1039   11.7579 C   0  0  0  0  0
   17.2722    7.2195   12.5937 C   0  0  0  0  0
   16.0985    7.9674   12.6863 C   0  0  0  0  0
   14.9768    7.5997   11.9430 C   0  0  0  0  0
   14.0933    8.1627   12.0126 H   0  0  0  0  0
   16.0593    8.8071   13.3155 H   0  0  0  0  0
   18.4715    7.6125   13.3883 C   0  0  0  0  0
   19.3410    7.3826   12.8465 H   0  0  0  0  0
   18.4765    7.0872   14.2975 H   0  0  0  0  0
   18.4413    8.6443   13.5804 H   0  0  0  0  0
   18.2080    5.5410   11.6882 H   0  0  0  0  0
   16.2419    4.8965   10.3856 H   0  0  0  0  0
   13.9269    5.3034    9.7467 H   0  0  0  0  0
   11.6430    4.6560    9.2334 C   0  0  0  0  0
   11.9499    3.8453    9.8259 H   0  0  0  0  0
   12.3388    4.8089    8.4620 H   0  0  0  0  0
   10.3261    7.0067   11.2720 H   0  0  0  0  0
   10.1532    5.3129   11.4748 H   0  0  0  0  0
    9.1156    6.9983    9.2913 H   0  0  0  0  0
    8.2300    6.0090   10.3761 H   0  0  0  0  0
    9.4329    2.0408    6.4675 H   0  0  0  0  0
    7.3326    3.1003    6.7667 H   0  0  0  0  0
  1  2  2  0  0  0
  2  3  1  0  0  0
  2  7  1  0  0  0
  3  4  1  0  0  0
  3 37  1  0  0  0
  4  5  2  0  0  0
  4 36  1  0  0  0
  5  6  1  0  0  0
  6  7  2  0  0  0
  6 29  1  0  0  0
  7  8  1  0  0  0
  8  9  1  0  0  0
  8 34  1  0  0  0
  8 35  1  0  0  0
  9 10  1  0  0  0
  9 32  1  0  0  0
  9 33  1  0  0  0
 10 11  1  0  0  0
 10 29  1  0  0  0
 11 12  2  0  0  0
 11 13  1  0  0  0
 13 14  1  0  0  0
 13 28  1  0  0  0
 14 15  2  0  0  0
 14 19  1  0  0  0
 15 16  1  0  0  0
 15 27  1  0  0  0
 16 17  2  0  0  0
 16 26  1  0  0  0
 17 18  1  0  0  0
 17 22  1  0  0  0
 18 19  2  0  0  0
 18 21  1  0  0  0
 19 20  1  0  0  0
 22 23  1  0  0  0
 22 24  1  0  0  0
 22 25  1  0  0  0
 29 30  1  0  0  0
 29 31  1  0  0  0
M  END
> <Chemgauss4>
-12.125393

> <Unaligned Pharm. Score (w/o EVS)>
56.75

> <MMFF94 Energy>
-83.56859

> <Binding Affinity Score>
-26.56

> <AlignmentState>
unalignable

$$$$
